Version 4
SHEET 1 1772 680
WIRE 1520 -192 1520 -224
WIRE 0 -160 0 -176
WIRE 1200 -144 1200 -160
WIRE 1168 -128 1136 -128
WIRE 1296 -112 1232 -112
WIRE 1472 -112 1296 -112
WIRE 1168 -96 1136 -96
WIRE 1200 -64 1200 -80
WIRE 1520 -64 1520 -96
WIRE 1632 -64 1520 -64
WIRE 0 -48 0 -80
WIRE 1520 -32 1520 -64
WIRE 784 0 224 0
WIRE 1200 16 1200 0
WIRE 1168 32 1136 32
WIRE 160 48 80 48
WIRE 1296 48 1232 48
WIRE 1472 48 1296 48
WIRE 80 64 80 48
WIRE 160 64 160 48
WIRE 1168 64 1136 64
WIRE 688 96 672 96
WIRE 784 96 784 0
WIRE 784 96 752 96
WIRE 1200 96 1200 80
WIRE 224 112 224 0
WIRE 272 112 224 112
WIRE 368 112 352 112
WIRE 416 112 368 112
WIRE 512 112 496 112
WIRE 1520 128 1520 64
WIRE 0 144 0 128
WIRE 160 144 160 128
WIRE 160 144 80 144
WIRE 80 176 80 144
WIRE 96 176 80 176
WIRE 416 176 416 160
WIRE 80 192 80 176
WIRE 160 192 80 192
WIRE 384 192 304 192
WIRE 736 192 736 176
WIRE 512 208 512 112
WIRE 512 208 448 208
WIRE 560 208 512 208
WIRE 672 208 672 96
WIRE 672 208 640 208
WIRE 704 208 672 208
WIRE 160 224 160 192
WIRE 368 224 368 112
WIRE 384 224 368 224
WIRE 784 224 784 96
WIRE 784 224 768 224
WIRE 864 224 784 224
WIRE 0 240 0 224
WIRE 704 240 672 240
WIRE 416 256 416 240
WIRE 736 272 736 256
WIRE 672 288 672 240
WIRE 80 304 80 272
WIRE 160 304 160 288
WIRE 160 304 80 304
FLAG 0 128 V+
FLAG 80 48 V+
FLAG 0 240 V-
FLAG 80 304 V-
FLAG 96 176 0
FLAG 416 160 V+
FLAG 416 256 V-
FLAG 736 176 V+
FLAG 736 272 V-
FLAG 672 288 0
FLAG 0 -48 0
FLAG 0 -176 Usignal
FLAG 304 192 0
FLAG 1200 -160 V+
FLAG 1136 -128 Vtriangle
FLAG 1136 -96 Usignal
FLAG 1296 -112 VpwmH
FLAG 864 224 Vtriangle
FLAG 1200 0 V+
FLAG 1136 64 Vtriangle
FLAG 1136 32 Usignal
FLAG 1296 48 VpwmL
FLAG 1520 128 V-
FLAG 1520 -224 V+
FLAG 1200 96 V-
FLAG 1632 -64 Vpwmout
FLAG 1200 -64 V-
SYMBOL sym_pal\ (1)\\voltage 0 128 R0
WINDOW 123 0 0 Left 2
WINDOW 39 0 0 Left 2
SYMATTR InstName V1
SYMATTR Value 5
SYMBOL res 64 48 R0
SYMATTR InstName R1
SYMATTR Value 1k
SYMBOL res 64 176 R0
SYMATTR InstName R2
SYMATTR Value 1k
SYMBOL Opamps\\opamp2 416 144 R0
SYMATTR InstName U1
SYMATTR Value OPA350
SYMBOL res 400 128 R270
WINDOW 0 32 56 VTop 2
WINDOW 3 0 56 VBottom 2
SYMATTR InstName R4
SYMATTR Value 8.2k
SYMBOL res 256 128 R270
WINDOW 0 32 56 VTop 2
WINDOW 3 0 56 VBottom 2
SYMATTR InstName R3
SYMATTR Value 5.1k
SYMBOL res 544 224 R270
WINDOW 0 32 56 VTop 2
WINDOW 3 0 56 VBottom 2
SYMATTR InstName R5
SYMATTR Value 1.8k
SYMBOL Opamps\\opamp2 736 160 R0
SYMATTR InstName U2
SYMATTR Value OPA350
SYMBOL cap 688 112 R270
WINDOW 0 32 32 VTop 2
WINDOW 3 0 32 VBottom 2
SYMATTR InstName C1
SYMATTR Value 2.2n
SYMBOL sym_pal\ (1)\\voltage 0 -176 R0
WINDOW 123 0 0 Left 2
WINDOW 39 0 0 Left 2
SYMATTR InstName V2
SYMATTR Value SINE(0 1.5 10k)
SYMBOL cap 144 64 R0
SYMATTR InstName C2
SYMATTR Value 4.7µ
SYMBOL cap 144 224 R0
SYMATTR InstName C3
SYMATTR Value 4.7µ
SYMBOL Opamps\\opamp2 1200 -176 R0
SYMATTR InstName U3
SYMATTR Value OPA350
SYMBOL Opamps\\opamp2 1200 -16 R0
SYMATTR InstName U4
SYMATTR Value OPA350
SYMBOL nmos 1472 -192 R0
SYMATTR InstName M1
SYMATTR Value IRLML2803
SYMBOL nmos 1472 -32 R0
SYMATTR InstName M2
SYMATTR Value IRLML2803
TEXT 496 -32 Left 2 !.include OPA350.mod
TEXT -40 384 Left 2 !.tran 0 100µ 1n 1µ
TEXT 48 -304 Left 2 ;wavefile = "gong.wav" chan=0
